3

C 	10	10	10
C 	11.3	10	10
C 	12.6	10	10

3

C 	10	10	10
C 	11.3	10	10
C 	12.6	10	10

3

C 	9.999997006	10	10
C 	11.3	10	10
C 	12.60000299	10	10

3

C 	9.999994013	10	10
C 	11.3	10	10
C 	12.60000599	10	10

3

C 	9.99999102	10	10
C 	11.3	10	10
C 	12.60000898	10	10

3

C 	9.998682598	10	10
C 	11.3	10	10
C 	12.6013174	10	10

3

C 	9.995578588	10	10
C 	11.3	10	10
C 	12.60442141	10	10

3

C 	9.991470036	10	10
C 	11.3	10	10
C 	12.60852996	10	10

3

C 	9.987035796	10	10
C 	11.3	10	10
C 	12.6129642	10	10

3

C 	9.982798205	10	10
C 	11.3	10	10
C 	12.61720179	10	10

3

C 	9.979112216	10	10
C 	11.3	10	10
C 	12.62088778	10	10

3

C 	9.976178203	10	10
C 	11.3	10	10
C 	12.6238218	10	10

3

C 	9.974068082	10	10
C 	11.3	10	10
C 	12.62593192	10	10

3

C 	9.972756474	10	10
C 	11.3	10	10
C 	12.62724353	10	10

3

C 	9.972151479	10	10
C 	11.3	10	10
C 	12.62784852	10	10

3

C 	9.972121997	10	10
C 	11.3	10	10
C 	12.627878	10	10

3

C 	9.972520286	10	10
C 	11.3	10	10
C 	12.62747971	10	10

3

C 	9.973199415	10	10
C 	11.3	10	10
C 	12.62680059	10	10

3

C 	9.974025815	10	10
C 	11.3	10	10
C 	12.62597419	10	10

3

C 	9.974887392	10	10
C 	11.3	10	10
C 	12.62511261	10	10

3

C 	9.975697776	10	10
C 	11.3	10	10
C 	12.62430222	10	10

3

C 	9.97639735	10	10
C 	11.3	10	10
C 	12.62360265	10	10

3

C 	9.976951738	10	10
C 	11.3	10	10
C 	12.62304826	10	10

3

C 	9.977348482	10	10
C 	11.3	10	10
C 	12.62265152	10	10

3

C 	9.977592593	10	10
C 	11.3	10	10
C 	12.62240741	10	10

3

C 	9.977701643	10	10
C 	11.3	10	10
C 	12.62229836	10	10

3

C 	9.977700939	10	10
C 	11.3	10	10
C 	12.62229906	10	10

3

C 	9.977619217	10	10
C 	11.3	10	10
C 	12.62238078	10	10

3

C 	9.977485116	10	10
C 	11.3	10	10
C 	12.62251488	10	10

3

C 	9.977324578	10	10
C 	11.3	10	10
C 	12.62267542	10	10

3

C 	9.97715917	10	10
C 	11.3	10	10
C 	12.62284083	10	10

3

C 	9.977005251	10	10
C 	11.3	10	10
C 	12.62299475	10	10

3

C 	9.977005277	10	10
C 	11.3	10	10
C 	12.62299472	10	10

3

C 	9.977005253	10	10
C 	11.3	10	10
C 	12.62299475	10	10

3

C 	9.97700523	10	10
C 	11.3	10	10
C 	12.62299477	10	10

3

C 	9.976773354	10	10
C 	11.3	10	10
C 	12.62322665	10	10

3

C 	9.976588493	10	10
C 	11.3	10	10
C 	12.62341151	10	10

3

C 	9.976513473	10	10
C 	11.3	10	10
C 	12.62348653	10	10

3

C 	9.976560887	10	10
C 	11.3	10	10
C 	12.62343911	10	10

3

C 	9.976695554	10	10
C 	11.3	10	10
C 	12.62330445	10	10

3

C 	9.976854484	10	10
C 	11.3	10	10
C 	12.62314552	10	10

3

C 	9.97697445	10	10
C 	11.3	10	10
C 	12.62302555	10	10

3

C 	9.977015811	10	10
C 	11.3	10	10
C 	12.62298419	10	10

3

C 	9.97697414	10	10
C 	11.3	10	10
C 	12.62302586	10	10

3

C 	9.976876917	10	10
C 	11.3	10	10
C 	12.62312308	10	10

3

C 	9.976768633	10	10
C 	11.3	10	10
C 	12.62323137	10	10

3

C 	9.976691603	10	10
C 	11.3	10	10
C 	12.6233084	10	10

3

C 	9.97667036	10	10
C 	11.3	10	10
C 	12.62332964	10	10

3

C 	9.976704975	10	10
C 	11.3	10	10
C 	12.62329503	10	10

3

C 	9.976774507	10	10
C 	11.3	10	10
C 	12.62322549	10	10

3

C 	9.976847853	10	10
C 	11.3	10	10
C 	12.62315215	10	10

3

C 	9.976896874	10	10
C 	11.3	10	10
C 	12.62310313	10	10

3

C 	9.97690657	10	10
C 	11.3	10	10
C 	12.62309343	10	10

3

C 	9.97687887	10	10
C 	11.3	10	10
C 	12.62312113	10	10

