4

C 	10	10	10
C 	11.3	10	10
C 	12.6	10	10
C 	13.6	10	10

4

C 	10	10	10
C 	11.3	10	10
C 	12.6	10	10
C 	13.6	10	10

4

C 	9.999991216	10	10
C 	11.29999781	10	10
C 	12.59991153	10	10
C 	13.60011217	10	10

4

C 	9.999982435	10	10
C 	11.29999561	10	10
C 	12.59982316	10	10
C 	13.60022418	10	10

4

C 	9.999973658	10	10
C 	11.2999934	10	10
C 	12.5997349	10	10
C 	13.60033605	10	10

4

C 	9.999285477	10	10
C 	11.29981914	10	10
C 	12.59282054	10	10
C 	13.60909857	10	10

4

C 	9.997973354	10	10
C 	11.29937362	10	10
C 	12.58028895	10	10
C 	13.62489677	10	10

4

C 	9.996421616	10	10
C 	11.29859493	10	10
C 	12.56682875	10	10
C 	13.64192357	10	10

4

C 	9.994815885	10	10
C 	11.29742409	10	10
C 	12.5546985	10	10
C 	13.65760274	10	10

4

C 	9.993234467	10	10
C 	11.29585129	10	10
C 	12.54467069	10	10
C 	13.67116437	10	10

4

C 	9.991700513	10	10
C 	11.29391598	10	10
C 	12.53676402	10	10
C 	13.68265231	10	10

4

C 	9.99021176	10	10
C 	11.29168877	10	10
C 	12.53069384	10	10
C 	13.69238798	10	10

4

C 	9.988756522	10	10
C 	11.2892519	10	10
C 	12.52610203	10	10
C 	13.700731	10	10

4

C 	9.987321533	10	10
C 	11.28668479	10	10
C 	12.52265582	10	10
C 	13.70799289	10	10

4

C 	9.985895285	10	10
C 	11.28405611	10	10
C 	12.52008021	10	10
C 	13.7144179	10	10

4

C 	9.984469097	10	10
C 	11.28142073	10	10
C 	12.51816085	10	10
C 	13.7201892	10	10

4

C 	9.983037113	10	10
C 	11.27881978	10	10
C 	12.51673582	10	10
C 	13.72544155	10	10

4

C 	9.981595899	10	10
C 	11.27628236	10	10
C 	12.51568477	10	10
C 	13.73027384	10	10

4

C 	9.980143917	10	10
C 	11.27382763	10	10
C 	12.51491889	10	10
C 	13.73475922	10	10

4

C 	9.978681038	10	10
C 	11.27146713	10	10
C 	12.51437268	10	10
C 	13.7389525	10	10

4

C 	9.977208118	10	10
C 	11.26920696	10	10
C 	12.51399761	10	10
C 	13.74289534	10	10

4

C 	9.97572667	10	10
C 	11.26704924	10	10
C 	12.51375746	10	10
C 	13.74661998	10	10

4

C 	9.97423861	10	10
C 	11.26499335	10	10
C 	12.51362495	10	10
C 	13.75015194	10	10

4

C 	9.972746072	10	10
C 	11.26303682	10	10
C 	12.51357927	10	10
C 	13.75351176	10	10

4

C 	9.971251278	10	10
C 	11.26117602	10	10
C 	12.51360436	10	10
C 	13.75671633	10	10

4

C 	9.969756441	10	10
C 	11.25940659	10	10
C 	12.51368767	10	10
C 	13.75977975	10	10

4

C 	9.968263705	10	10
C 	11.25772382	10	10
C 	12.51381925	10	10
C 	13.76271395	10	10

4

C 	9.966775101	10	10
C 	11.25612288	10	10
C 	12.51399111	10	10
C 	13.76552919	10	10

4

C 	9.965292526	10	10
C 	11.25459892	10	10
C 	12.51419678	10	10
C 	13.76823437	10	10

4

C 	9.963817724	10	10
C 	11.25314726	10	10
C 	12.51443092	10	10
C 	13.77083729	10	10

4

C 	9.962352287	10	10
C 	11.25176338	10	10
C 	12.51468912	10	10
C 	13.77334484	10	10

4

C 	9.960897651	10	10
C 	11.25044299	10	10
C 	12.51496767	10	10
C 	13.77576316	10	10

4

C 	9.960897728	10	10
C 	11.25044337	10	10
C 	12.51496778	10	10
C 	13.77576263	10	10

4

C 	9.960891254	10	10
C 	11.25043791	10	10
C 	12.51496919	10	10
C 	13.77577284	10	10

4

C 	9.96088478	10	10
C 	11.25043245	10	10
C 	12.5149706	10	10
C 	13.77578305	10	10

4

C 	9.953476133	10	10
C 	11.24404644	10	10
C 	12.51652584	10	10
C 	13.78765513	10	10

4

C 	9.940098382	10	10
C 	11.2337404	10	10
C 	12.51979291	10	10
C 	13.80752387	10	10

4

C 	9.922937064	10	10
C 	11.22241326	10	10
C 	12.52466568	10	10
C 	13.83062988	10	10

4

C 	9.90417395	10	10
C 	11.21214408	10	10
C 	12.53077857	10	10
C 	13.85323437	10	10

4

C 	9.885804507	10	10
C 	11.20394676	10	10
C 	12.53757399	10	10
C 	13.87294708	10	10

4

C 	9.869461315	10	10
C 	11.19804789	10	10
C 	12.54439925	10	10
C 	13.88853895	10	10

4

C 	9.856265186	10	10
C 	11.19424218	10	10
C 	12.55062774	10	10
C 	13.8996466	10	10

4

C 	9.846790937	10	10
C 	11.1921679	10	10
C 	12.55573994	10	10
C 	13.90648373	10	10

4

C 	9.841130468	10	10
C 	11.19145493	10	10
C 	12.55937067	10	10
C 	13.90960813	10	10

4

C 	9.839005502	10	10
C 	11.19177658	10	10
C 	12.56133478	10	10
C 	13.90974637	10	10

4

C 	9.839888891	10	10
C 	11.1928517	10	10
C 	12.5616375	10	10
C 	13.90766645	10	10

4

C 	9.84311175	10	10
C 	11.19443136	10	10
C 	12.56046832	10	10
C 	13.90408995	10	10

4

C 	9.847948875	10	10
C 	11.19628926	10	10
C 	12.55817297	10	10
C 	13.89963945	10	10

4

C 	9.853683563	10	10
C 	11.1982235	10	10
C 	12.55520048	10	10
C 	13.89481737	10	10

4

C 	9.859656458	10	10
C 	11.20006855	10	10
C 	12.55202931	10	10
C 	13.89001017	10	10

4

C 	9.865303233	10	10
C 	11.20171001	10	10
C 	12.54908699	10	10
C 	13.88550751	10	10

4

C 	9.870183995	10	10
C 	11.20309207	10	10
C 	12.5466836	10	10
C 	13.88152501	10	10

4

C 	9.874004194	10	10
C 	11.20421008	10	10
C 	12.54497724	10	10
C 	13.87822093	10	10

4

C 	9.876623943	10	10
C 	11.20508851	10	10
C 	12.54397953	10	10
C 	13.87570238	10	10

4

C 	9.878051722	10	10
C 	11.20575347	10	10
C 	12.54359378	10	10
C 	13.87402278	10	10

4

C 	9.878420506	10	10
C 	11.20621313	10	10
C 	12.54366836	10	10
C 	13.87317618	10	10

4

C 	9.877949085	10	10
C 	11.20645489	10	10
C 	12.54404522	10	10
C 	13.87309532	10	10

4

C 	9.876896105	10	10
C 	11.20645892	10	10
C 	12.54459053	10	10
C 	13.87365807	10	10

4

C 	9.875516645	10	10
C 	11.20621925	10	10
C 	12.5452051	10	10
C 	13.87470278	10	10

4

C 	9.874029562	10	10
C 	11.2057606	10	10
C 	12.54582061	10	10
C 	13.87604918	10	10

4

C 	9.872599738	10	10
C 	11.20514312	10	10
C 	12.54639064	10	10
C 	13.87752	10	10

4

C 	9.871334707	10	10
C 	11.20445332	10	10
C 	12.54688354	10	10
C 	13.87895887	10	10

4

C 	9.871334868	10	10
C 	11.20445333	10	10
C 	12.54688347	10	10
C 	13.87895875	10	10

4

C 	9.871334829	10	10
C 	11.20445323	10	10
C 	12.54688348	10	10
C 	13.87895888	10	10

4

C 	9.87133479	10	10
C 	11.20445313	10	10
C 	12.54688348	10	10
C 	13.878959	10	10

4

C 	9.869770582	10	10
C 	11.20334564	10	10
C 	12.547466	10	10
C 	13.88098779	10	10

4

C 	9.868553133	10	10
C 	11.20247487	10	10
C 	12.54785376	10	10
C 	13.8826327	10	10

4

C 	9.86790093	10	10
C 	11.20221546	10	10
C 	12.54803284	10	10
C 	13.88335593	10	10

4

C 	9.867954745	10	10
C 	11.20251517	10	10
C 	12.54806607	10	10
C 	13.88300746	10	10

4

C 	9.868699302	10	10
C 	11.20308899	10	10
C 	12.54793745	10	10
C 	13.88186889	10	10

4

C 	9.869897939	10	10
C 	11.2036763	10	10
C 	12.54755714	10	10
C 	13.88048713	10	10

4

C 	9.871151145	10	10
C 	11.20411099	10	10
C 	12.54696088	10	10
C 	13.87937731	10	10

4

C 	9.872045758	10	10
C 	11.20429396	10	10
C 	12.54641461	10	10
C 	13.87880489	10	10

4

C 	9.872299874	10	10
C 	11.20422162	10	10
C 	12.54622564	10	10
C 	13.87878253	10	10

4

C 	9.87185918	10	10
C 	11.20400732	10	10
C 	12.54646985	10	10
C 	13.8791967	10	10

4

C 	9.870928953	10	10
C 	11.20378114	10	10
C 	12.54695846	10	10
C 	13.87989424	10	10

4

C 	9.869900659	10	10
C 	11.2035702	10	10
C 	12.54743406	10	10
C 	13.88068788	10	10

4

C 	9.869169118	10	10
C 	11.2033346	10	10
C 	12.54773409	10	10
C 	13.88136217	10	10

4

C 	9.868944337	10	10
C 	11.20310549	10	10
C 	12.54780315	10	10
C 	13.88172853	10	10

4

C 	9.869190779	10	10
C 	11.20301471	10	10
C 	12.5476583	10	10
C 	13.88169061	10	10

4

C 	9.869716024	10	10
C 	11.20316158	10	10
C 	12.54738827	10	10
C 	13.88127429	10	10

4

C 	9.870306126	10	10
C 	11.20348969	10	10
C 	12.54712983	10	10
C 	13.88062235	10	10

4

C 	9.870800855	10	10
C 	11.20382655	10	10
C 	12.54697935	10	10
C 	13.87996238	10	10

4

C 	9.871099443	10	10
C 	11.2040238	10	10
C 	12.54692862	10	10
C 	13.8795339	10	10

4

C 	9.871152868	10	10
C 	11.20403469	10	10
C 	12.54691667	10	10
C 	13.8794814	10	10

4

C 	9.870969882	10	10
C 	11.20389026	10	10
C 	12.54693109	10	10
C 	13.87977961	10	10

4

C 	9.870617088	10	10
C 	11.20366045	10	10
C 	12.54701741	10	10
C 	13.88025959	10	10

4

C 	9.870200132	10	10
C 	11.2034411	10	10
C 	12.54719128	10	10
C 	13.88071686	10	10

4

C 	9.869839319	10	10
C 	11.20332241	10	10
C 	12.54738524	10	10
C 	13.88101102	10	10

4

C 	9.869645414	10	10
C 	11.20333118	10	10
C 	12.54750032	10	10
C 	13.88109523	10	10

4

C 	9.86968441	10	10
C 	11.20341538	10	10
C 	12.54748828	10	10
C 	13.88099232	10	10

4

C 	9.869938286	10	10
C 	11.20350418	10	10
C 	12.5473712	10	10
C 	13.88076349	10	10

4

C 	9.869938308	10	10
C 	11.20350418	10	10
C 	12.54737119	10	10
C 	13.88076348	10	10

4

C 	9.869938339	10	10
C 	11.20350417	10	10
C 	12.54737118	10	10
C 	13.88076347	10	10

4

C 	9.86993837	10	10
C 	11.20350417	10	10
C 	12.54737117	10	10
C 	13.88076345	10	10

4

C 	9.870330878	10	10
C 	11.20356786	10	10
C 	12.54719105	10	10
C 	13.88047409	10	10

4

C 	9.870661875	10	10
C 	11.2036631	10	10
C 	12.54702184	10	10
C 	13.88020862	10	10

4

C 	9.87074698	10	10
C 	11.20375388	10	10
C 	12.54699072	10	10
C 	13.88007062	10	10

4

C 	9.870596027	10	10
C 	11.20374539	10	10
C 	12.54710302	10	10
C 	13.88012956	10	10

4

C 	9.870333412	10	10
C 	11.20364083	10	10
C 	12.54721771	10	10
C 	13.88038318	10	10

4

C 	9.870106881	10	10
C 	11.20350154	10	10
C 	12.54726944	10	10
C 	13.88068728	10	10

4

C 	9.870009722	10	10
C 	11.20340756	10	10
C 	12.54729997	10	10
C 	13.88084064	10	10

4

C 	9.870051089	10	10
C 	11.20344457	10	10
C 	12.5473027	10	10
C 	13.88076407	10	10

4

C 	9.870205053	10	10
C 	11.20357951	10	10
C 	12.5472499	10	10
C 	13.88053733	10	10

4

C 	9.87041966	10	10
C 	11.20367709	10	10
C 	12.54716737	10	10
C 	13.88030939	10	10

4

C 	9.870582515	10	10
C 	11.20369	10	10
C 	12.54708942	10	10
C 	13.88020418	10	10

4

C 	9.870585469	10	10
C 	11.20366424	10	10
C 	12.54706128	10	10
C 	13.88024898	10	10

4

C 	9.870430514	10	10
C 	11.2036196	10	10
C 	12.54713146	10	10
C 	13.88038132	10	10

4

C 	9.870222811	10	10
C 	11.20356575	10	10
C 	12.54724982	10	10
C 	13.88053185	10	10

4

C 	9.870088434	10	10
C 	11.203526	10	10
C 	12.54730647	10	10
C 	13.88065125	10	10

4

C 	9.870098359	10	10
C 	11.20350378	10	10
C 	12.54728083	10	10
C 	13.88068372	10	10

4

C 	9.87022177	10	10
C 	11.20351568	10	10
C 	12.54722391	10	10
C 	13.88060019	10	10

4

C 	9.870363192	10	10
C 	11.20358593	10	10
C 	12.54716901	10	10
C 	13.88044517	10	10

4

C 	9.870453985	10	10
C 	11.20366637	10	10
C 	12.54713886	10	10
C 	13.88030981	10	10

4

C 	9.870475002	10	10
C 	11.20368119	10	10
C 	12.54714129	10	10
C 	13.8802735	10	10

4

C 	9.870424076	10	10
C 	11.20363287	10	10
C 	12.54715479	10	10
C 	13.88035529	10	10

