5

C 	10	10	10
C 	11.3	10	10
C 	12.6	10	10
C 	13.6	10	10
C 	14.8	10	10

5

C 	10	10	10
C 	11.3	10	10
C 	12.6	10	10
C 	13.6	10	10
C 	14.8	10	10

5

C 	10.00000257	10	10
C 	11.29998622	10	10
C 	12.59990216	10	10
C 	13.60007575	10	10
C 	14.80002553	10	10

5

C 	10.00000514	10	10
C 	11.29997245	10	10
C 	12.59980441	10	10
C 	13.60015142	10	10
C 	14.80005106	10	10

5

C 	10.0000077	10	10
C 	11.29995867	10	10
C 	12.59970676	10	10
C 	13.60022703	10	10
C 	14.80007659	10	10

5

C 	10.00029913	10	10
C 	11.29838591	10	10
C 	12.58857301	10	10
C 	13.60884803	10	10
C 	14.80299103	10	10

5

C 	10.00079131	10	10
C 	11.29505529	10	10
C 	12.56725116	10	10
C 	13.62538605	10	10
C 	14.80915356	10	10

5

C 	10.0011598	10	10
C 	11.29066409	10	10
C 	12.54403681	10	10
C 	13.6432099	10	10
C 	14.81724599	10	10

5

C 	10.00119335	10	10
C 	11.28555524	10	10
C 	12.52337697	10	10
C 	13.65863434	10	10
C 	14.82656062	10	10

5

C 	10.00079071	10	10
C 	11.27992313	10	10
C 	12.5068665	10	10
C 	13.67040433	10	10
C 	14.83661941	10	10

5

C 	9.999930014	10	10
C 	11.27392814	10	10
C 	12.494523	10	10
C 	13.67868196	10	10
C 	14.84701381	10	10

5

C 	9.998635169	10	10
C 	11.26773751	10	10
C 	12.48569262	10	10
C 	13.68421817	10	10
C 	14.85738229	10	10

5

C 	9.996951052	10	10
C 	11.26152127	10	10
C 	12.47954914	10	10
C 	13.68786703	10	10
C 	14.86743597	10	10

5

C 	9.99492891	10	10
C 	11.25543278	10	10
C 	12.47532731	10	10
C 	13.69036118	10	10
C 	14.87697807	10	10

5

C 	9.992619234	10	10
C 	11.24959244	10	10
C 	12.47240959	10	10
C 	13.69224208	10	10
C 	14.88590208	10	10

5

C 	9.990069011	10	10
C 	11.24408092	10	10
C 	12.47033922	10	10
C 	13.69386754	10	10
C 	14.89417439	10	10

5

C 	9.9873211	10	10
C 	11.23894089	10	10
C 	12.46880039	10	10
C 	13.69544909	10	10
C 	14.90181156	10	10

5

C 	9.984414374	10	10
C 	11.23418217	10	10
C 	12.46758753	10	10
C 	13.69709638	10	10
C 	14.90885938	10	10

5

C 	9.981383952	10	10
C 	11.22979312	10	10
C 	12.46657462	10	10
C 	13.69885113	10	10
C 	14.91537707	10	10

5

C 	9.978261384	10	10
C 	11.22574842	10	10
C 	12.46568924	10	10
C 	13.70071549	10	10
C 	14.92142673	10	10

5

C 	9.975074756	10	10
C 	11.22201555	10	10
C 	12.4648929	10	10
C 	13.70267151	10	10
C 	14.92706704	10	10

5

C 	9.971848752	10	10
C 	11.21855953	10	10
C 	12.46416685	10	10
C 	13.70469345	10	10
C 	14.9323505	10	10

5

C 	9.968604745	10	10
C 	11.21534618	10	10
C 	12.4635028	10	10
C 	13.70675491	10	10
C 	14.93732235	10	10

5

C 	9.965360939	10	10
C 	11.21234397	10	10
C 	12.46289732	10	10
C 	13.70883241	10	10
C 	14.94202076	10	10

5

C 	9.962132568	10	10
C 	11.20952497	10	10
C 	12.46234862	10	10
C 	13.7109068	10	10
C 	14.94647748	10	10

5

C 	9.958932146	10	10
C 	11.20686518	10	10
C 	12.46185496	10	10
C 	13.71296345	10	10
C 	14.95071877	10	10

5

C 	9.955769759	10	10
C 	11.20434433	10	10
C 	12.46141397	10	10
C 	13.71499176	10	10
C 	14.95476638	10	10

5

C 	9.952653367	10	10
C 	11.20194556	10	10
C 	12.46102254	10	10
C 	13.71698449	10	10
C 	14.95863839	10	10

5

C 	9.949589106	10	10
C 	11.19965495	10	10
C 	12.460677	10	10
C 	13.71893698	10	10
C 	14.96234995	10	10

5

C 	9.946581577	10	10
C 	11.19746108	10	10
C 	12.46037326	10	10
C 	13.72084649	10	10
C 	14.96591385	10	10

5

C 	9.943634105	10	10
C 	11.19535452	10	10
C 	12.46010715	10	10
C 	13.72271168	10	10
C 	14.96934108	10	10

5

C 	9.940748968	10	10
C 	11.19332751	10	10
C 	12.45987452	10	10
C 	13.72453212	10	10
C 	14.97264111	10	10

5

C 	9.940749247	10	10
C 	11.19332783	10	10
C 	12.45987465	10	10
C 	13.72453193	10	10
C 	14.97264059	10	10

5

C 	9.940742174	10	10
C 	11.19332302	10	10
C 	12.45987422	10	10
C 	13.72453637	10	10
C 	14.97264842	10	10

5

C 	9.940735102	10	10
C 	11.19331821	10	10
C 	12.45987379	10	10
C 	13.7245408	10	10
C 	14.97265625	10	10

5

C 	9.926132902	10	10
C 	11.18327892	10	10
C 	12.45888618	10	10
C 	13.73372093	10	10
C 	14.98900095	10	10

5

C 	9.900623158	10	10
C 	11.16624106	10	10
C 	12.45769808	10	10
C 	13.74971479	10	10
C 	15.01661386	10	10

5

C 	9.869368112	10	10
C 	11.14589842	10	10
C 	12.45695055	10	10
C 	13.76939757	10	10
C 	15.0491986	10	10

5

C 	9.83735183	10	10
C 	11.1252246	10	10
C 	12.45688131	10	10
C 	13.7900331	10	10
C 	15.08133424	10	10

5

C 	9.808605449	10	10
C 	11.10629688	10	10
C 	12.45735616	10	10
C 	13.80943388	10	10
C 	15.10922278	10	10

5

C 	9.785776122	10	10
C 	11.09057485	10	10
C 	12.45806871	10	10
C 	13.82583608	10	10
C 	15.13078317	10	10

5

C 	9.770125384	10	10
C 	11.0790226	10	10
C 	12.45871723	10	10
C 	13.83795119	10	10
C 	15.14532898	10	10

5

C 	9.761777496	10	10
C 	11.07215916	10	10
C 	12.45909969	10	10
C 	13.8450446	10	10
C 	15.15311802	10	10

5

C 	9.760059469	10	10
C 	11.07006072	10	10
C 	12.45914086	10	10
C 	13.84699873	10	10
C 	15.15493062	10	10

5

C 	9.763832467	10	10
C 	11.07234845	10	10
C 	12.45887953	10	10
C 	13.84431829	10	10
C 	15.15175683	10	10

5

C 	9.771758135	10	10
C 	11.07820373	10	10
C 	12.45843678	10	10
C 	13.83803871	10	10
C 	15.14462764	10	10

5

C 	9.782470781	10	10
C 	11.08645543	10	10
C 	12.45797601	10	10
C 	13.82952666	10	10
C 	15.13458062	10	10

5

C 	9.794655772	10	10
C 	11.09576256	10	10
C 	12.45765746	10	10
C 	13.8202068	10	10
C 	15.12270546	10	10

5

C 	9.807069149	10	10
C 	11.10486426	10	10
C 	12.45758872	10	10
C 	13.81128958	10	10
C 	15.11019082	10	10

5

C 	9.818555542	10	10
C 	11.11281228	10	10
C 	12.45778131	10	10
C 	13.80358986	10	10
C 	15.09830136	10	10

5

C 	9.828112462	10	10
C 	11.1190817	10	10
C 	12.45813682	10	10
C 	13.79750257	10	10
C 	15.08824888	10	10

5

C 	9.835006582	10	10
C 	11.12350969	10	10
C 	12.45848458	10	10
C 	13.79313146	10	10
C 	15.08097993	10	10

5

C 	9.838892033	10	10
C 	11.12612213	10	10
C 	12.4586642	10	10
C 	13.79047379	10	10
C 	15.07696957	10	10

5

C 	9.839853134	10	10
C 	11.12698769	10	10
C 	12.45860883	10	10
C 	13.78952472	10	10
C 	15.07613803	10	10

5

C 	9.838329478	10	10
C 	11.12620204	10	10
C 	12.45837569	10	10
C 	13.79023887	10	10
C 	15.07794638	10	10

5

C 	9.834959063	10	10
C 	11.12397618	10	10
C 	12.45810355	10	10
C 	13.79241857	10	10
C 	15.08161464	10	10

5

C 	9.83042309	10	10
C 	11.12070999	10	10
C 	12.45792839	10	10
C 	13.79565588	10	10
C 	15.08634182	10	10

5

C 	9.825353922	10	10
C 	11.11695777	10	10
C 	12.45791416	10	10
C 	13.79939239	10	10
C 	15.09143958	10	10

5

C 	9.820308318	10	10
C 	11.11329468	10	10
C 	12.45803629	10	10
C 	13.80305994	10	10
C 	15.09636783	10	10

5

C 	9.815766796	10	10
C 	11.11016947	10	10
C 	12.45821363	10	10
C 	13.80621649	10	10
C 	15.10071588	10	10

5

C 	9.812120597	10	10
C 	11.10782594	10	10
C 	12.45835868	10	10
C 	13.80861211	10	10
C 	15.10417986	10	10

5

C 	9.809636775	10	10
C 	11.10631745	10	10
C 	12.45841714	10	10
C 	13.81017347	10	10
C 	15.10656155	10	10

5

C 	9.809637314	10	10
C 	11.10631778	10	10
C 	12.4584171	10	10
C 	13.81017313	10	10
C 	15.10656105	10	10

5

C 	9.809637709	10	10
C 	11.10631802	10	10
C 	12.45841706	10	10
C 	13.81017288	10	10
C 	15.1065607	10	10

5

C 	9.809638104	10	10
C 	11.10631826	10	10
C 	12.45841702	10	10
C 	13.81017264	10	10
C 	15.10656035	10	10

5

C 	9.80885276	10	10
C 	11.10584517	10	10
C 	12.45828768	10	10
C 	13.81067181	10	10
C 	15.10744321	10	10

5

C 	9.81124993	10	10
C 	11.10713125	10	10
C 	12.45809172	10	10
C 	13.80928492	10	10
C 	15.1053206	10	10

5

C 	9.815413422	10	10
C 	11.109936	10	10
C 	12.45809335	10	10
C 	13.80639059	10	10
C 	15.10123693	10	10

5

C 	9.819726982	10	10
C 	11.11329634	10	10
C 	12.45824839	10	10
C 	13.80310897	10	10
C 	15.09670729	10	10

5

C 	9.823032561	10	10
C 	11.11569592	10	10
C 	12.45833289	10	10
C 	13.80084391	10	10
C 	15.09320088	10	10

5

C 	9.824392792	10	10
C 	11.11636304	10	10
C 	12.45826427	10	10
C 	13.80014373	10	10
C 	15.09193505	10	10

5

C 	9.823306493	10	10
C 	11.11553824	10	10
C 	12.45815271	10	10
C 	13.80082289	10	10
C 	15.09325812	10	10

5

C 	9.820324964	10	10
C 	11.11363665	10	10
C 	12.45812932	10	10
C 	13.80270938	10	10
C 	15.09627548	10	10

5

C 	9.816774949	10	10
C 	11.11118342	10	10
C 	12.45821591	10	10
C 	13.80528498	10	10
C 	15.09963377	10	10

5

C 	9.813912951	10	10
C 	11.10912141	10	10
C 	12.45830659	10	10
C 	13.80739907	10	10
C 	15.10236396	10	10

5

C 	9.812576941	10	10
C 	11.10824117	10	10
C 	12.45828151	10	10
C 	13.80820068	10	10
C 	15.10379475	10	10

5

C 	9.813105182	10	10
C 	11.10861432	10	10
C 	12.45816732	10	10
C 	13.80776327	10	10
C 	15.10343149	10	10

5

C 	9.815134873	10	10
C 	11.10991179	10	10
C 	12.45812258	10	10
C 	13.8064975	10	10
C 	15.10141496	10	10

5

C 	9.817744142	10	10
C 	11.11174847	10	10
C 	12.45821625	10	10
C 	13.80471107	10	10
C 	15.09867274	10	10

5

C 	9.820030935	10	10
C 	11.11350337	10	10
C 	12.45831039	10	10
C 	13.80295923	10	10
C 	15.09629534	10	10

5

C 	9.821404941	10	10
C 	11.11444035	10	10
C 	12.45826331	10	10
C 	13.80200486	10	10
C 	15.09498122	10	10

5

C 	9.82147288	10	10
C 	11.11431098	10	10
C 	12.45815467	10	10
C 	13.80211612	10	10
C 	15.09503133	10	10

5

C 	9.820183197	10	10
C 	11.11342023	10	10
C 	12.45815067	10	10
C 	13.80298833	10	10
C 	15.09634167	10	10

5

C 	9.818109417	10	10
C 	11.11213102	10	10
C 	12.45824116	10	10
C 	13.80429126	10	10
C 	15.09831854	10	10

5

C 	9.816158362	10	10
C 	11.1107794	10	10
C 	12.45828418	10	10
C 	13.80568733	10	10
C 	15.10018913	10	10

5

C 	9.814975618	10	10
C 	11.10985088	10	10
C 	12.45823339	10	10
C 	13.8066205	10	10
C 	15.10141512	10	10

5

C 	9.814788329	10	10
C 	11.10971459	10	10
C 	12.45817504	10	10
C 	13.80670319	10	10
C 	15.10170553	10	10

5

C 	9.815554221	10	10
C 	11.11029817	10	10
C 	12.4581811	10	10
C 	13.80609268	10	10
C 	15.10095842	10	10

5

C 	9.816969437	10	10
C 	11.11127245	10	10
C 	12.45822875	10	10
C 	13.805165	10	10
C 	15.09945648	10	10

5

C 	9.818492261	10	10
C 	11.11232942	10	10
C 	12.45825633	10	10
C 	13.80415141	10	10
C 	15.09786859	10	10

5

C 	9.819599923	10	10
C 	11.11313869	10	10
C 	12.45823695	10	10
C 	13.8033127	10	10
C 	15.0968058	10	10

5

C 	9.819992784	10	10
C 	11.11338351	10	10
C 	12.45819563	10	10
C 	13.8030201	10	10
C 	15.09649494	10	10

5

C 	9.819992678	10	10
C 	11.11338343	10	10
C 	12.45819563	10	10
C 	13.80302019	10	10
C 	15.09649504	10	10

5

C 	9.819992571	10	10
C 	11.11338335	10	10
C 	12.45819563	10	10
C 	13.80302028	10	10
C 	15.09649513	10	10

5

C 	9.819992464	10	10
C 	11.11338327	10	10
C 	12.45819564	10	10
C 	13.80302036	10	10
C 	15.09649523	10	10

5

C 	9.819551145	10	10
C 	11.11302002	10	10
C 	12.45819032	10	10
C 	13.80340022	10	10
C 	15.09692647	10	10

5

C 	9.818429636	10	10
C 	11.11228292	10	10
C 	12.45822639	10	10
C 	13.80417564	10	10
C 	15.09797954	10	10

5

C 	9.817140618	10	10
C 	11.11145319	10	10
C 	12.45825284	10	10
C 	13.80499963	10	10
C 	15.09924906	10	10

5

C 	9.816233517	10	10
C 	11.11076495	10	10
C 	12.45822553	10	10
C 	13.80566176	10	10
C 	15.10020536	10	10

5

C 	9.815952383	10	10
C 	11.1105073	10	10
C 	12.45818592	10	10
C 	13.80591724	10	10
C 	15.10052548	10	10

5

C 	9.816280871	10	10
C 	11.11079278	10	10
C 	12.45819887	10	10
C 	13.8056435	10	10
C 	15.10017427	10	10

5

C 	9.817092002	10	10
C 	11.11140166	10	10
C 	12.45824214	10	10
C 	13.80504003	10	10
C 	15.09931781	10	10

5

C 	9.818090259	10	10
C 	11.11205009	10	10
C 	12.45824405	10	10
C 	13.80439403	10	10
C 	15.09831559	10	10

5

C 	9.818854091	10	10
C 	11.11256278	10	10
C 	12.45820598	10	10
C 	13.80387697	10	10
C 	15.0975913	10	10

5

C 	9.819104088	10	10
C 	11.11276578	10	10
C 	12.45819279	10	10
C 	13.80366003	10	10
C 	15.09736628	10	10

5

C 	9.818821735	10	10
C 	11.11256123	10	10
C 	12.45821941	10	10
C 	13.80386513	10	10
C 	15.09762327	10	10

5

C 	9.818157718	10	10
C 	11.11208998	10	10
C 	12.45823845	10	10
C 	13.80435744	10	10
C 	15.09825041	10	10

5

C 	9.81738297	10	10
C 	11.11158066	10	10
C 	12.45822614	10	10
C 	13.80487109	10	10
C 	15.09903273	10	10

5

C 	9.816813617	10	10
C 	11.11117616	10	10
C 	12.45820701	10	10
C 	13.80525248	10	10
C 	15.09964091	10	10

5

C 	9.816630468	10	10
C 	11.11100622	10	10
C 	12.45820561	10	10
C 	13.80541363	10	10
C 	15.09983334	10	10

5

C 	9.816828302	10	10
C 	11.11116461	10	10
C 	12.45821978	10	10
C 	13.80527614	10	10
C 	15.09960333	10	10

5

C 	9.817316891	10	10
C 	11.11155003	10	10
C 	12.45823155	10	10
C 	13.80490215	10	10
C 	15.09909338	10	10

5

C 	9.817930669	10	10
C 	11.11195001	10	10
C 	12.45822554	10	10
C 	13.80448636	10	10
C 	15.09849956	10	10

5

C 	9.81841166	10	10
C 	11.11224561	10	10
C 	12.45820819	10	10
C 	13.80417929	10	10
C 	15.09804519	10	10

5

C 	9.818561358	10	10
C 	11.1123777	10	10
C 	12.45820536	10	10
C 	13.80405671	10	10
C 	15.09788952	10	10

5

C 	9.818378539	10	10
C 	11.1122763	10	10
C 	12.45822339	10	10
C 	13.80416709	10	10
C 	15.09804734	10	10

5

C 	9.817985437	10	10
C 	11.11197898	10	10
C 	12.45823359	10	10
C 	13.804461	10	10
C 	15.098434	10	10

5

C 	9.817526948	10	10
C 	11.1116505	10	10
C 	12.45821889	10	10
C 	13.80478471	10	10
C 	15.09891057	10	10

5

C 	9.817166438	10	10
C 	11.11141621	10	10
C 	12.4582042	10	10
C 	13.80501772	10	10
C 	15.09928596	10	10

5

C 	9.817038117	10	10
C 	11.1113208	10	10
C 	12.45821312	10	10
C 	13.80511298	10	10
C 	15.09940609	10	10

5

C 	9.817163256	10	10
C 	11.11139951	10	10
C 	12.45822881	10	10
C 	13.80503819	10	10
C 	15.09926273	10	10

5

C 	9.817467455	10	10
C 	11.11162944	10	10
C 	12.45822625	10	10
C 	13.80481307	10	10
C 	15.09895656	10	10

5

C 	9.817467463	10	10
C 	11.11162944	10	10
C 	12.45822625	10	10
C 	13.80481307	10	10
C 	15.09895656	10	10

5

C 	9.817467475	10	10
C 	11.11162945	10	10
C 	12.45822625	10	10
C 	13.80481306	10	10
C 	15.09895655	10	10

5

C 	9.817467487	10	10
C 	11.11162946	10	10
C 	12.45822625	10	10
C 	13.80481305	10	10
C 	15.09895654	10	10

